C 2 0 1e-6
R 1 2 1e3
V 1 0 10
.AC OCT 20 1 1e3
.PRINT 1