R 1 2 1e2 10
L 2 0 1e-1 10
V 1 0 1 0
.AC OCT 20 1 1e3 
.PRINT 1