R 1 2 1e0 10
L 2 3 1e-3 10
C 3 0 1e-3 10
V 1 0 1 0
.AC OCT 20 1 5e3 
.PRINT 1