C 1 0 1e-12 10
R 1 0 1e3 10
L 1 0 1e-12 10
V 1 0 10 0 10
.AC OCT 20 1 1e3 
.PRINT 1
